*KEYWORD
*TITLE
pipe whip simulation
$---+----1----+----2----+----3----+----4----+----5----+----6----+----7----+----8
$ mm, ton, s, N
$ stationary pipe (material 1), Steel
$ rotation pipe (materia 2), Alum.
$ A. Tabiei, 2-1-98
$---+----1----+----2----+----3----+----4----+----5----+----6----+----7----+----8
*CONTROL_TERMINATION
$   ENDTIM    ENDCYC     DTMIN    ENDNEG    ENDMAS
 0.002E+00         0     0.000     0.000     0.000
*CONTROL_TIMESTEP
$   DTINIT      SCFT 
     0.000     0.900
*CONTROL_CONTACT
$   SLSFAC    RWPNAL    ISLCHK    SHLTHK
     0.100                   2         2
$   USRSTR    USRFAC     NSBCS    INTERM
 
*CONTROL_ENERGY
$     HGEN      RWEN    SLNTEN     RYLEN
         2         1         1         1
$---+----1----+----2----+----3----+----4----+----5----+----6----+----7----+----8
*DATABASE_MATSUM
 0.100E-05
*DATABASE_NODOUT
 0.100E-05
*DATABASE_ELOUT
 0.100E-05
*DATABASE_GLSTAT
 0.100E-05
*DATABASE_RCFORC
 0.100E-05
$---+----1----+----2----+----3----+----4----+----5----+----6----+----7----+----8
*DATABASE_BINARY_D3PLOT
$  DT/CYCL
0.0001E+00
*DATABASE_BINARY_D3THDT
$  DT/CYCL
 0.100E+03
*DATABASE_BINARY_D3DUMP
$  DT/CYCL
 1.000E+05 
$---+----1----+----2----+----3----+----4----+----5----+----6----+----7----+----8
*PART 
LOWER, stationary
$      PID       SID       MID
         1         1         1
*PART 
UPPER, rotating 
$      PID       SID       MID                                  ADPOPT
         2         2         2                                       1
$---+----1----+----2----+----3----+----4----+----5----+----6----+----7----+----8
*MAT_Plastic_kinematic
$      MID        RO         E        PR      SIGY      ETAN      BETA
         1 7.890E-09 2.100E+05 3.000E-01 4.400E+02 1.700E+03 1.000E+00
$      SRC       SRP        FS

*MAT_Plastic_kinematic
$      MID        RO         E        PR      SIGY      ETAN      BETA
         2 2.730E-09 7.2408E+4 3.000E-01 9.500E+01 7.2408E+3 0.000E+00
$      SRC       SRP        FS

$---+----1----+----2----+----3----+----4----+----5----+----6----+----7----+----8
*SECTION_SHELL                                                         
$      SID    ELFORM      SHRF       NIP
         1         2 0.000E+00       3.0 
$       T1        T2        T3        T4
 1.000E+01 1.000E+01 1.000E+01 1.000E+01
*SECTION_SHELL 
$      SID    ELFORM      SHRF       NIP
         2         2 0.000E+00       3.0
$       T1        T2        T3        T4
 1.000E+01 1.000E+01 1.000E+01 1.000E+01
$---+----1----+----2----+----3----+----4----+----5----+----6----+----7----+----8
*INITIAL_VELOCITY_GENERATION
         2         2     200.0 
     635.0     -635.   168.275        -1         0         0
$---+----1----+----2----+----3----+----4----+----5----+----6----+----7----+----8
*CONTACT_surface_to_surface
         5         4         2         2
 0.0000000 0.0000000 0.0000000 0.0000000 0.0000000         0 0.0000000 1.000E+20 
 1.0000000 1.0000000 0.0000000 0.0000000 1.0000000 1.0000000 1.0000000 1.0000000
$---+----1----+----2----+----3----+----4----+----5----+----6----+----7----+----8
*set_part
5
2
*set_part
4
1
$---+----1----+----2----+----3----+----4----+----5----+----6----+----7----+----8
*CONTROL_ADAPT
$     freq       tol       opt       lvl     birth     death
     0.001      10.0         2         3       0.0       0.0
$             ADPASS
                   0
$---+----1----+----2----+----3----+----4----+----5----+----6----+----7----+----8
*NODE
       1 431.79998799999 -5.49227493E-13 78.652496299999
       2 431.79998799999 -24.30495829999 74.802970900000
       3 457.20001200000 -24.30495829999 74.802970900000
       4 457.20001200000 -5.49227493E-13 78.652496299999
       5 482.60000600000 -24.30495829999 74.802970900000
       6 482.60000600000 -5.49227493E-13 78.652496299999
       7 508.00000000000 -24.30495829999 74.802970900000
       8 508.00000000000 -5.49227493E-13 78.652496299999
       9 533.40002400000 -24.30495829999 74.802970900000
      10 533.40002400000 -5.49227493E-13 78.652496299999
      11 558.79998799999 -24.30495829999 74.802970900000
      12 558.79998799999 -5.49227493E-13 78.652496299999
      13 584.20001200000 -24.30495829999 74.802970900000
      14 584.20001200000 -5.49227493E-13 78.652496299999
      15 609.59997599999 -24.30495829999 74.802970900000
      16 609.59997599999 -5.49227493E-13 78.652496299999
      17 635.00000000000 -24.30495829999 74.802970900000
      18 635.00000000000 -5.49227493E-13 78.652496299999
      19 660.40002400000 -24.30495829999 74.802970900000
      20 660.40002400000 -5.49227493E-13 78.652496299999
$ ... 2320 like lines cut
*ELEMENT_SHELL
    2000       1       1    2020    2680    2021
    2001       1    2020       2    2023    2680
    2002       1    2680    2023       3    2025
    2003       1    2021    2680    2025       4
    2004       1       4    2025    2681    2028
    2005       1    2025       3    2026    2681
    2006       1    2681    2026       5    2030
    2007       1    2028    2681    2030       6
    2008       1       6    2030    2682    2033
    2009       1    2030       5    2031    2682
    2010       1    2682    2031       7    2035
    2011       1    2033    2682    2035       8
    2012       1       8    2035    2683    2038
    2013       1    2035       7    2036    2683
    2014       1    2683    2036       9    2040
    2015       1    2038    2683    2040      10
    2016       1      10    2040    2684    2043
    2017       1    2040       9    2041    2684
    2018       1    2684    2041      11    2045
    2019       1    2043    2684    2045      12
$ ... 1260 like lines cut
*ELEMENT_SHELL
    1000       2    1000    1001    1002    1003
    1001       2    1003    1002    1004    1005
    1002       2    1005    1004    1006    1007
    1003       2    1007    1006    1008    1009
    1004       2    1009    1008    1010    1011
    1005       2    1011    1010    1012    1013
    1006       2    1013    1012    1014    1015
    1007       2    1015    1014    1016    1017
    1008       2    1017    1016    1018    1019
    1009       2    1019    1018    1020    1021
    1010       2    1021    1020    1022    1023
    1011       2    1023    1022    1024    1025
    1012       2    1025    1024    1026    1027
    1013       2    1027    1026    1028    1029
    1014       2    1029    1028    1030    1031
    1015       2    1031    1030    1032    1033
    1016       2    1033    1032    1034    1035
    1017       2    1035    1034    1036    1037
    1018       2    1037    1036    1038    1039
    1019       2    1039    1038    1040    1041
$ ... 980 like lines cut
$---+----1----+----2----+----3----+----4----+----5----+----6----+----7----+----8
*BOUNDARY_SPC_NODE
        86         0         1         1         1         1         1         1
       103         0         1         1         1         1         1         1
       120         0         1         1         1         1         1         1
       137         0         1         1         1         1         1         1
       154         0         1         1         1         1         1         1
       171         0         1         1         1         1         1         1
       272         0         1         1         1         1         1         1
       289         0         1         1         1         1         1         1
       306         0         1         1         1         1         1         1
       323         0         1         1         1         1         1         1
       340         0         1         1         1         1         1         1
      2203         0         1         1         1         1         1         1
      2236         0         1         1         1         1         1         1
      2269         0         1         1         1         1         1         1
      2302         0         1         1         1         1         1         1
      2335         0         1         1         1         1         1         1
      2368         0         1         1         1         1         1         1
      2564         0         1         1         1         1         1         1
      2597         0         1         1         1         1         1         1
      2630         0         1         1         1         1         1         1
$ ... 42 like lines cut
$---+----1----+----2----+----3----+----4----+----5----+----6----+----7----+----8                                   
*END
